396

N        -16.46700        1.66700       -0.88400
C        -16.64000        0.87500        0.32200
C        -15.80100       -0.40200        0.24300
O        -16.30900       -1.49800        0.47000
C        -18.10900        0.49900        0.52700
C        -18.27900       -0.39400        1.75800
C        -19.37000        0.14900        2.68300
N        -18.75700        0.87800        3.81500
C        -18.10600        0.28100        4.83700
N        -17.97900       -1.06300        4.87600
N        -17.59700        1.03000        5.79600
H        -17.03100        2.50700       -0.81900
H        -15.49200        1.92500       -0.99100
H        -16.76100        1.12500       -1.68900
H        -16.29800        1.52000        1.13100
H        -18.70700        1.40300        0.64500
H        -18.48400       -0.01800       -0.35600
H        -18.53400       -1.40600        1.44400
H        -17.33600       -0.45600        2.30000
H        -20.03200        0.81400        2.12800
H        -19.98300       -0.67100        3.05700
H        -18.82900        1.87500        3.82500
H        -18.36900       -1.62300        4.14500
H        -17.49600       -1.49700        5.63600
H        -17.70900        2.03200        5.73700
H        -17.10200        0.66800        6.58600
N        -14.52900       -0.21700       -0.08000
C        -13.61400       -1.34000       -0.19100
C        -12.21000       -0.84300        0.16000
O        -11.95100        0.35900        0.13900
C        -13.69300       -1.97600       -1.58000
C        -12.70600       -1.38800       -2.59100
C        -11.58300       -1.94500       -3.06600
C        -12.79900       -0.10000       -3.23500
N        -10.94900       -1.11300       -3.96600
C        -11.71200        0.04500       -4.07200
C        -13.77000        0.90900       -3.11400
C        -11.49200        1.18600       -4.85300
C        -13.53600        2.04300       -3.90100
C        -12.44600        2.20400       -4.74900
H        -14.12300        0.67900       -0.26300
H        -13.93000       -2.09900        0.52400
H        -13.51000       -3.04700       -1.48900
H        -14.70600       -1.85700       -1.96600
H        -11.21800       -2.93000       -2.77900
H        -10.02000       -1.32400       -4.49600
H        -14.63800        0.81900       -2.46000
H        -10.62400        1.27600       -5.50600
H        -14.25900        2.85700       -3.84500
H        -12.33500        3.12000       -5.33000
N        -11.34200       -1.79300        0.47400
C         -9.97100       -1.46700        0.82900
C         -9.04500       -2.47100        0.14100
O         -9.40000       -3.63700       -0.02300
C         -9.76800       -1.44900        2.34500
S        -10.82600       -0.25800        3.24700
H        -11.56100       -2.76800        0.48800
H         -9.78600       -0.45600        0.46400
H         -9.95800       -2.44900        2.73400
H         -8.72400       -1.21700        2.55500
N         -7.87500       -1.98200       -0.24400
C         -6.89500       -2.82200       -0.91000
C         -5.48900       -2.31600       -0.58200
O         -5.29400       -1.12600       -0.34000
C         -7.17900       -2.86600       -2.41300
C         -8.64900       -3.19500       -2.68400
C         -6.77800       -1.55200       -3.08600
H         -7.59400       -1.03200       -0.10700
H         -7.00500       -3.83200       -0.51600
H         -6.57300       -3.66300       -2.84500
H         -8.79900       -3.33200       -3.75400
H         -8.91900       -4.11000       -2.15800
H         -9.27500       -2.37500       -2.33200
H         -6.26600       -0.91600       -2.36400
H         -6.11100       -1.76100       -3.92300
H         -7.67000       -1.04300       -3.45000
N         -4.54400       -3.24600       -0.58500
C         -3.16200       -2.90900       -0.29100
C         -2.37800       -2.63900       -1.57700
O         -2.77400       -3.08100       -2.65400
C         -2.56800       -4.13500        0.40600
C         -3.58000       -4.93200        1.23200
C         -4.11200       -4.38700        2.38300
C         -3.96000       -6.19500        0.82700
C         -5.06400       -5.13700        3.16100
C         -4.91200       -6.94500        1.60500
C         -5.41700       -6.37900        2.73300
O         -6.31700       -7.08700        3.46800
H         -4.71100       -4.21200       -0.78300
H         -3.15800       -2.00900        0.32400
H         -2.13200       -4.79200       -0.34600
H         -1.75600       -3.81200        1.05700
H         -3.81200       -3.38900        2.70300
H         -3.54000       -6.62500       -0.08200
H         -5.49300       -4.71900        4.07200
H         -5.22100       -7.94400        1.29600
H         -5.88800       -7.41500        4.31000
N         -1.28000       -1.91400       -1.42100
C         -0.43700       -1.58000       -2.55600
C          1.01200       -1.43800       -2.08600
O          1.26600       -1.23700       -0.89900
C         -0.96000       -0.30700       -3.22400
H         -0.96500       -1.55800       -0.54100
H         -0.49900       -2.40100       -3.27000
H         -1.35900        0.36500       -2.46300
H         -0.14600        0.18700       -3.75400
H         -1.75000       -0.56500       -3.93000
N          1.92400       -1.54700       -3.04000
C          3.34100       -1.43400       -2.73800
C          3.92300       -0.14300       -3.31800
O          3.64500        0.20900       -4.46300
C          4.01400       -2.63000       -3.41400
C          3.27800       -3.95600       -3.20600
C          3.00600       -4.40100       -1.92900
C          2.88800       -4.70600       -4.29700
C          2.31400       -5.64900       -1.73400
C          2.19600       -5.95400       -4.10200
C          1.94300       -6.36400       -2.83000
O          1.29000       -7.54200       -2.64600
H          1.70900       -1.71100       -4.00300
H          3.45400       -1.42000       -1.65400
H          4.09300       -2.43400       -4.48300
H          5.03000       -2.72700       -3.03200
H          3.31400       -3.80900       -1.06800
H          3.10300       -4.35400       -5.30600
H          2.09300       -6.01300       -0.73100
H          1.88200       -6.55600       -4.95400
H          1.49900       -7.91100       -1.74000
N          4.72000        0.52900       -2.50000
C          5.34400        1.77300       -2.91600
C          6.86300        1.65000       -2.77600
O          7.35300        0.90200       -1.93100
C          4.76300        2.94300       -2.11900
C          4.62000        2.58000       -0.63900
C          5.61300        4.20200       -2.29500
H          4.94100        0.23600       -1.56900
H          5.10000        1.92700       -3.96800
H          3.76700        3.15300       -2.51000
H          5.61000        2.46300       -0.19700
H          4.08200        3.37300       -0.12100
H          4.06800        1.64500       -0.54600
H          6.61700        4.02000       -1.91200
H          5.66900        4.45800       -3.35300
H          5.15800        5.02700       -1.74600
N          7.56500        2.39400       -3.61700
C          9.01800        2.37800       -3.59700
C          9.54800        3.44600       -2.63800
O          9.49500        4.63700       -2.94000
C          9.59100        2.62600       -4.99400
C         10.96900        3.28500       -4.91200
C         11.75700        3.07100       -6.20600
N         12.37100        1.72400       -6.20800
C         12.76300        1.07300       -7.32300
N         12.60800        1.64000       -8.53800
N         13.30000       -0.12800       -7.20800
H          7.15900        3.00000       -4.30100
H          9.28000        1.37700       -3.25300
H          9.66700        1.68200       -5.53300
H          8.91200        3.26300       -5.56100
H         10.85500        4.35300       -4.72400
H         11.52500        2.87100       -4.07100
H         11.09600        3.18000       -7.06600
H         12.53100        3.83300       -6.30000
H         12.50300        1.26800       -5.32800
H         12.20100        2.55000       -8.61700
H         12.90200        1.15100       -9.36000
H         13.40100       -0.52400       -6.28400
H         13.61600       -0.67600       -7.98200
N         10.04700        2.98100       -1.50300
C         10.58600        3.88100       -0.49800
C         11.89600        3.30600        0.04600
O         11.97200        2.12000        0.36300
C          9.54200        4.16400        0.58400
C          8.41300        5.04200        0.04100
C         10.19300        4.77100        1.82900
C          8.40900        6.41300        0.72100
H         10.08600        2.01000       -1.26500
H         10.80400        4.82900       -0.99100
H          9.09600        3.21600        0.88500
H          8.53100        5.16600       -1.03600
H          7.45400        4.54900        0.20200
H          9.45500        4.83800        2.62800
H         11.02100        4.14000        2.15000
H         10.56500        5.76900        1.59400
H          8.30800        6.28400        1.79800
H          9.34400        6.92900        0.50300
H          7.57300        7.00200        0.34500
N         12.89300        4.17400        0.13800
C         14.19500        3.76700        0.63800
C         14.81100        2.71100       -0.28200
O         15.49000        1.79700        0.18300
C         14.08800        3.19800        2.05500
C         13.93000        4.31900        3.08500
C         12.86900        3.96000        4.12700
N         13.41900        4.13600        5.49000
C         12.86300        3.61500        6.60400
N         11.73400        2.87900        6.52600
N         13.44000        3.83600        7.77100
H         12.82200        5.13700       -0.12200
H         14.79000        4.68000        0.64100
H         13.23600        2.52100        2.11500
H         14.97800        2.61200        2.28400
H         14.88400        4.50100        3.57900
H         13.65000        5.24400        2.58000
H         11.99000        4.59100        3.99700
H         12.54500        2.92900        3.98800
H         14.25500        4.67600        5.59200
H         11.30400        2.71600        5.63800
H         11.32900        2.49600        7.35600
H         14.28300        4.39100        7.79500
H         13.09300        3.48700        8.64100
N         14.55100        2.87200       -1.57100
C         15.07200        1.94400       -2.56100
C         14.51700        0.53500       -2.33700
O         15.04800       -0.43700       -2.87200
H         13.99800        3.61800       -1.94100
H         16.16000        1.92300       -2.50800
N         13.45700        0.47000       -1.54500
C         12.82500       -0.80300       -1.24400
C         11.32300       -0.69800       -1.51400
O         10.78100        0.40200       -1.61100
C         13.14700       -1.21900        0.19300
C         12.94700       -2.72400        0.38500
C         14.56600       -0.80100        0.58100
H         13.03200        1.26600       -1.11400
H         13.25100       -1.54800       -1.91500
H         12.45300       -0.70200        0.85500
H         13.71400       -3.11000        1.05600
H         11.96200       -2.90800        0.81500
H         13.02100       -3.22700       -0.57900
H         15.14500       -0.60100       -0.32100
H         14.52500        0.09900        1.19300
H         15.04000       -1.60400        1.14600
N         10.69200       -1.85800       -1.62700
C          9.26300       -1.91000       -1.88400
C          8.52600       -2.22400       -0.58000
O          8.68700       -3.30500       -0.01700
C          8.95800       -2.89500       -3.01500
C          7.70700       -2.59700       -3.84400
C          7.02200       -1.31700       -3.36200
C          8.03800       -2.54300       -5.33600
H         11.14000       -2.74800       -1.54700
H          8.95600       -0.92200       -2.22500
H          9.81600       -2.92300       -3.68700
H          8.85600       -3.89100       -2.58500
H          6.99900       -3.41400       -3.70000
H          6.90000       -1.35500       -2.27900
H          7.63300       -0.45500       -3.62900
H          6.04300       -1.22800       -3.83400
H          8.78400       -1.76900       -5.51500
H          8.43100       -3.50800       -5.65700
H          7.13400       -2.31400       -5.90100
N          7.73300       -1.25900       -0.13900
C          6.97100       -1.41800        1.08700
C          5.48700       -1.56800        0.74500
O          4.98700       -0.91000       -0.16600
C          7.25100       -0.24900        2.03300
C          7.12600       -0.68400        3.49500
C          8.62700        0.36100        1.75900
H          7.60700       -0.38200       -0.60400
H          7.31300       -2.33300        1.57100
H          6.50100        0.52000        1.84700
H          7.29900       -1.75800        3.57000
H          7.86400       -0.15400        4.09600
H          6.12500       -0.45100        3.85900
H          9.39700       -0.39200        1.92200
H          8.67100        0.70800        0.72600
H          8.79200        1.20200        2.43200
N          4.82400       -2.43700        1.49400
C          3.40800       -2.68200        1.28100
C          2.57600       -1.90200        2.30100
O          3.00200       -1.70900        3.43800
C          3.08200       -4.17200        1.40000
C          4.28300       -5.03000        0.99500
C          3.87100       -6.49000        0.79700
N          4.74100       -7.37500        1.60400
C          5.95000       -7.82000        1.20000
N          6.44400       -7.46500       -0.00500
N          6.64200       -8.60700        2.00300
H          5.23900       -2.96800        2.23300
H          3.21400       -2.33200        0.26700
H          2.79400       -4.40400        2.42500
H          2.22800       -4.41300        0.76700
H          4.71700       -4.64200        0.07400
H          5.05400       -4.96700        1.76300
H          2.83000       -6.62500        1.08800
H          3.94500       -6.75700       -0.25700
H          4.41200       -7.66200        2.50300
H          5.91300       -6.86800       -0.60700
H          7.34000       -7.79800       -0.29600
H          6.24500       -8.85400        2.89700
H          7.54400       -8.97900        1.78000
N          1.40300       -1.47300        1.85600
C          0.50700       -0.71900        2.71600
C         -0.95500       -1.00300        2.36800
O         -1.24800       -1.57500        1.31900
C          0.80600        0.75700        2.44500
C          0.72800        1.14600        0.96700
C          1.83700        1.00700        0.15700
C         -0.45100        1.63700        0.44400
C          1.76300        1.37300       -1.23300
C         -0.52500        2.00300       -0.94700
C          0.58600        1.85300       -1.71700
O          0.51700        2.19900       -3.03000
H          1.06400       -1.63400        0.93000
H          0.69400       -1.02300        3.74600
H          0.10300        1.37000        3.00900
H          1.80300        0.99000        2.81900
H          2.76800        0.62000        0.57000
H         -1.32700        1.74600        1.08400
H          2.63200        1.26800       -1.88400
H         -1.45000        2.39100       -1.37300
H          1.41400        2.50100       -3.35200
N         -1.83500       -0.59000        3.26900
C         -3.26000       -0.79300        3.07000
C         -3.94000        0.53000        2.71300
O         -3.63400        1.56700        3.29900
C         -3.91400       -1.37200        4.32600
C         -2.98100       -2.36400        5.02300
C         -3.77500       -3.37500        5.85300
N         -5.06600       -2.78300        6.27100
C         -5.23500       -2.05500        7.39600
N         -4.19500       -1.82300        8.22500
N         -6.43300       -1.57400        7.67200
H         -1.58900       -0.12600        4.11900
H         -3.32800       -1.50400        2.24600
H         -4.17000       -0.56500        5.01200
H         -4.84600       -1.87100        4.05900
H         -2.38200       -2.89000        4.27900
H         -2.28700       -1.82500        5.66700
H         -3.95300       -4.27800        5.26900
H         -3.20000       -3.67000        6.73000
H         -5.86200       -2.93100        5.68500
H         -3.29100       -2.19200        8.00900
H         -4.32900       -1.28300        9.05600
H         -7.19000       -1.76600        7.03200
H         -6.64200       -1.02700        8.48300
N         -4.85000        0.45100        1.75300
C         -5.57600        1.63000        1.31100
C         -7.08400        1.38400        1.38800
O         -7.52800        0.23800        1.43500
C         -5.19900        2.00200       -0.12400
C         -3.80800        2.63600       -0.17900
C         -3.71500        3.65700       -1.31400
N         -4.59500        4.81200       -1.03000
C         -4.40700        6.05000       -1.53300
N         -3.36500        6.30500       -2.35400
N         -5.25600        7.00800       -1.21200
H         -5.09300       -0.39600        1.28100
H         -5.27100        2.41900        1.99900
H         -5.22300        1.11200       -0.75300
H         -5.93500        2.69700       -0.52800
H         -3.58800        3.12200        0.77100
H         -3.05600        1.85900       -0.32100
H         -2.68400        3.99400       -1.42800
H         -4.00400        3.19300       -2.25700
H         -5.37900        4.66600       -0.42600
H         -2.72600        5.57300       -2.59200
H         -3.23200        7.22500       -2.72300
H         -6.02500        6.78500       -0.59600
H         -5.18800        7.95000       -1.54200
N         -7.83000        2.47900        1.39800
C         -9.27900        2.39700        1.46800
C         -9.86600        3.39300        0.46600
O         -9.17800        4.31100        0.02300
C         -9.79200        2.64700        2.88800
S         -9.70200        1.19800        4.00200
H         -7.46100        3.40700        1.35900
H         -9.54800        1.37500        1.20100
H         -9.21800        3.46200        3.32800
H        -10.82800        2.98000        2.83200
N        -11.13100        3.17700        0.13800
C        -11.81800        4.04500       -0.80400
C        -11.98200        5.41800       -0.14900
O        -11.59200        5.62200        0.99900
C        -13.14800        3.43100       -1.24500
C        -14.34100        3.83900       -0.37800
C        -15.25500        4.78700       -0.62600
C        -14.71400        3.26900        0.89400
N        -16.18600        4.87000        0.39000
C        -15.84700        3.91700        1.34300
C        -14.11500        2.23900        1.64100
C        -16.47700        3.60900        2.55400
C        -14.75700        1.94300        2.84900
C        -15.89800        2.58600        3.31500
O        -12.50900        6.34100       -0.76300
H        -11.68400        2.42800        0.50300
H        -11.19600        4.12900       -1.69500
H        -13.34600        3.72100       -2.27700
H        -13.05700        2.34400       -1.23200
H        -15.26100        5.41500       -1.51700
H        -17.03100        5.55700        0.43500
H        -13.22100        1.71200        1.30800
H        -17.37100        4.13600        2.88700
H        -14.33400        1.15100        3.46700
H        -16.33900        2.29600        4.26800
