21

N   -17.814  -9.577   9.474
C   -16.875  -8.536   9.954
C   -17.138  -7.213   9.239
O   -16.894  -7.072   8.029
N   -17.649  -6.211   9.980
C   -17.950  -4.852   9.409
C   -17.386  -3.760  10.292
O   -17.632  -3.751  11.500
N   -16.646  -2.828   9.672
C   -16.096  -1.629  10.347
C   -16.131  -0.382   9.456
O   -16.055  -0.460   8.227
N   -16.270   0.793  10.078
C   -16.313   2.118   9.411
C   -15.274   3.082  10.005
O   -14.972   3.020  11.196
N   -14.762   3.985   9.166
C   -13.906   5.116   9.541
C   -14.322   6.364   8.746
O   -14.711   6.274   7.576
N   -14.230   7.538   9.369
