12

C        0         0         0
O   0.2634   -1.1836   -0.2000
N   0.7954    0.9961   -0.3964
C   2.0399    0.7507   -1.0974
C   3.2158    1.2926   -0.2965
O   3.3513    2.5020   -0.1287
N   4.0680    0.3914    0.1980
C   5.2262    0.7801    0.9763
C   6.5059    0.3267    0.2873
O   6.7655   -0.8693    0.1806
N   7.3047    1.2877   -0.1810
C   8.5510    0.9853   -0.8557
