21

N    0.0994    0.5242    0.4534
C    0.8159    0.0392    1.6564
C    0.2985    0.7492    2.9050
O    0.5101    1.9584    3.0961
N   -0.3992    0.0046    3.7843
C   -0.9610    0.5704    5.0601
C   -0.6222   -0.3174    6.2379
O   -0.8652   -1.5253    6.1936
N   -0.0794    0.2982    7.2995
C    0.2247   -0.3820    8.5804
C   -0.0543    0.5040    9.7999
O    0.0355    1.7333    9.7433
N   -0.4211   -0.1225   10.9222
C   -0.7233    0.5392   12.2158
C    0.1064   -0.0595   13.3624
O    0.4147   -1.2505   13.3560
N    0.4313    0.7755   14.3518
C    1.0488    0.3953   15.6272
C    0.3960    1.1856   16.7725
O    0.0322    2.3563   16.6127
N    0.2559    0.5579   17.9392
